9
Coordinates from ORCA-job ethanol_opt_pbe0
  C   -4.91832095933557      1.53666754565033     -0.06624112451690
  C   -3.41563316010245      1.44992331325134     -0.14155274261535
  H   -5.22246354739802      2.28682456746228      0.66707347640129
  H   -5.34200430573851      0.57373599466186      0.22595756872545
  H   -5.33383719993087      1.81223882277634     -1.03759682538060
  H   -3.00608228769935      1.18685676793258      0.84392478886187
  H   -2.99789458370438      2.42727565231956     -0.42151117790888
  O   -3.07963120170119      0.46731581471609     -1.10256878913439
  H   -2.12365275438966      0.40566152122960     -1.15678517443249
